LTspice 24.0.11 for Windows
Circuit: * C:\users\manuel\My Documents\LizardBot1_ProjectFiles\1_Hardware\SPICE\Draft1.asc
Start Time: Sun Jun 16 20:52:25 2024
solver = Normal
Maximum thread count: 8
tnom = 27
temp = 27
method = modified trap
Direct Newton iteration for .op point succeeded.
Total elapsed time: 0.144 seconds.

