LTspice 24.0.11 for Windows
Circuit: * C:\users\manuel\My Documents\LizardBot1_ProjectFiles\1_Hardware\SPICE\LizardBot1_ControlBoard_SPICE_CircuitProtection.asc
Start Time: Sat Apr 20 01:03:42 2024
solver = Normal
Maximum thread count: 8
tnom = 27
temp = 27
method = modified trap
.OP point found by inspection.
Total elapsed time: 0.096 seconds.

